%cpu=0-27
%mem=109GB
%chk=mich-again.chk
# B3LYP 6-31G(d) opt freq 

dummy line

0  1
H           3.67675         2.75272         1.77720
C           5.07595         1.21458        -0.82702
C           3.90491         1.85942        -0.06096
C           2.61508         1.05733        -0.28998
N           4.20130         1.98217         1.37547
O           2.05527         1.06782        -1.38485
C           5.44425        -0.19357        -0.35502
S           6.96834        -0.75138        -1.21287
C           7.10615        -2.43097        -0.51554
C           0.99474        -0.51201         0.73842
C          -0.30945         0.30558         0.92020
N           2.16535         0.36640         0.77921
O          -1.11436         0.12117         1.83262
C           0.39832        -4.13100         2.08804
C           0.07040        -2.76100         1.48681
C           1.29634        -1.28520         3.18303
C           1.17021        -1.70174         1.70844
H           0.95426        -0.91215        -0.28057
C          -1.59064         2.20657         0.00164
C          -2.86921         1.60634        -0.63445
N          -0.49057         1.24569        -0.03678
O          -3.30036         1.97576        -1.71432
S           0.15070         4.34532         0.21033
C          -1.21067         3.49979        -0.71040
O          -5.79360         1.57835         0.95938
C          -4.61414        -0.08943        -0.30819
C          -5.89495         0.35391         0.41003
N          -3.43730         0.63150         0.12292
O          -6.90490        -0.30252         0.45608
C          -2.61813        -1.67813        -2.08729
N          -1.79495        -2.65107        -2.61430
C          -2.07462        -3.74158        -1.94553
N          -3.04081        -3.52029        -1.00289
C          -3.40518        -2.18748        -1.08268
C          -4.46041        -1.61433        -0.18945
H           4.80977         1.19058        -1.88583
H           5.94533         1.87634        -0.73436
H           3.71344         2.83081        -0.53312
H           5.18427         2.18598         1.52170
H           5.61835        -0.21511         0.72308
H           4.63798        -0.89456        -0.58398
H           8.00079        -2.88196        -0.94541
H           7.21584        -2.40283         0.57002
H           6.24322        -3.04243        -0.78440
H           2.70687         0.47270         1.62814
H          -0.38341        -4.85714         1.84709
H           1.34133        -4.52607         1.69616
H           0.48012        -4.09903         3.17750
H          -0.87055        -2.38805         1.89802
H          -0.09183        -2.88136         0.40927
H           1.51137        -2.15241         3.81126
H           2.11636        -0.57931         3.35023
H           0.37567        -0.82198         3.53678
H           2.12293        -2.15869         1.40605
H          -1.80373         2.41051         1.05524
H           0.18724         1.29383        -0.79588
H           0.17046         5.45428        -0.56079
H          -2.07961         4.15359        -0.74454
H          -0.89889         3.29481        -1.73426
H          -6.66109         1.78691         1.33971
H          -4.76909         0.18210        -1.35812
H          -2.95946         0.36031         0.97705
H          -2.59460        -0.66698        -2.46542
H          -1.62245        -4.71175        -2.09325
H          -3.43233        -4.20347        -0.37395
H          -5.43719        -2.05628        -0.40559
H          -4.24412        -1.86486         0.85842

